data_image0
_cell_length_a       8.08
_cell_length_b       16.6655
_cell_length_c       36
_cell_angle_alpha    90
_cell_angle_beta     90
_cell_angle_gamma    90

_symmetry_space_group_name_H-M    "P 1"
_symmetry_int_tables_number       1

loop_
  _symmetry_equiv_pos_as_xyz
  'x, y, z'

loop_
  _atom_site_label
  _atom_site_occupancy
  _atom_site_fract_x
  _atom_site_fract_y
  _atom_site_fract_z
  _atom_site_thermal_displace_type
  _atom_site_B_iso_or_equiv
  _atom_site_type_symbol
  Al1      1.0000 0.99996  0.97096  0.45387  Biso   1.000  Al
  Al2      1.0000 0.49999  0.14611  0.67275  Biso   1.000  Al
  Al3      1.0000 0.00000  0.50759  0.73923  Biso   1.000  Al
  Al4      1.0000 0.50001  0.16875  0.59617  Biso   1.000  Al
  Al5      1.0000 0.99999  0.35152  0.75265  Biso   1.000  Al
  Al6      1.0000 1.00000  0.08786  0.81783  Biso   1.000  Al
  Al7      1.0000 0.99998  0.25679  0.81032  Biso   1.000  Al
  Al8      1.0000 1.00000  0.25176  0.69585  Biso   1.000  Al
  Al9      1.0000 0.49999  0.27162  0.79571  Biso   1.000  Al
  Al10     1.0000 0.21937  0.75467  0.61962  Biso   1.000  Al
  Al11     1.0000 0.73388  0.60862  0.53700  Biso   1.000  Al
  Al12     1.0000 0.78063  0.75466  0.61961  Biso   1.000  Al
  Al13     1.0000 0.26611  0.60861  0.53700  Biso   1.000  Al
  Al14     1.0000 0.27682  0.81052  0.55006  Biso   1.000  Al
  Al15     1.0000 0.78360  0.58941  0.60997  Biso   1.000  Al
  Al16     1.0000 0.72312  0.81051  0.55005  Biso   1.000  Al
  Al17     1.0000 0.21641  0.58941  0.60997  Biso   1.000  Al
  Al18     1.0000 0.28475  0.18901  0.53356  Biso   1.000  Al
  Al19     1.0000 0.77435  0.51190  0.68037  Biso   1.000  Al
  Al20     1.0000 0.71526  0.18901  0.53356  Biso   1.000  Al
  Al21     1.0000 0.99998  0.46549  0.81466  Biso   1.000  Al
  Al22     1.0000 0.22565  0.51190  0.68038  Biso   1.000  Al
  Al23     1.0000 0.49998  0.41472  0.81483  Biso   1.000  Al
  Al24     1.0000 0.49999  0.28085  0.70627  Biso   1.000  Al
  Al25     1.0000 0.50001  0.93781  0.33735  Biso   1.000  Al
  Al26     1.0000 0.74914  0.82140  0.35178  Biso   1.000  Al
  Al27     1.0000 0.74988  0.91068  0.28250  Biso   1.000  Al
  Al28     1.0000 0.50000  0.85053  0.40924  Biso   1.000  Al
  Al29     1.0000 0.72007  0.87882  0.47207  Biso   1.000  Al
  Al30     1.0000 0.69537  0.08524  0.78410  Biso   1.000  Al
  Al31     1.0000 0.30462  0.08523  0.78410  Biso   1.000  Al
  Al32     1.0000 0.78479  0.11333  0.70922  Biso   1.000  Al
  Al33     1.0000 0.21520  0.11333  0.70922  Biso   1.000  Al
  Al34     1.0000 0.28340  0.52353  0.79332  Biso   1.000  Al
  Al35     1.0000 0.99999  0.52181  0.50183  Biso   1.000  Al
  Al36     1.0000 0.71658  0.52353  0.79332  Biso   1.000  Al
  Al37     1.0000 0.22197  0.19584  0.64062  Biso   1.000  Al
  Al38     1.0000 0.30200  0.40260  0.73598  Biso   1.000  Al
  Al39     1.0000 0.78053  0.07559  0.58212  Biso   1.000  Al
  Al40     1.0000 0.69799  0.40260  0.73597  Biso   1.000  Al
  Al41     1.0000 0.21944  0.07561  0.58212  Biso   1.000  Al
  Al42     1.0000 0.24212  0.23946  0.75873  Biso   1.000  Al
  Al43     1.0000 0.75786  0.23947  0.75872  Biso   1.000  Al
  Al44     1.0000 0.99999  0.04744  0.64626  Biso   1.000  Al
  Al45     1.0000 0.28761  0.30781  0.58855  Biso   1.000  Al
  Al46     1.0000 0.77775  0.63043  0.73785  Biso   1.000  Al
  Al47     1.0000 0.71243  0.30781  0.58856  Biso   1.000  Al
  Al48     1.0000 0.21476  0.94796  0.69245  Biso   1.000  Al
  Al49     1.0000 0.78524  0.94796  0.69245  Biso   1.000  Al
  Al50     1.0000 0.28765  0.90670  0.76219  Biso   1.000  Al
  Al51     1.0000 0.71234  0.90671  0.76219  Biso   1.000  Al
  Al52     1.0000 0.26728  0.83462  0.83346  Biso   1.000  Al
  Al53     1.0000 0.73270  0.83462  0.83346  Biso   1.000  Al
  Al54     1.0000 0.76795  0.91715  0.61035  Biso   1.000  Al
  Al55     1.0000 0.23200  0.91715  0.61036  Biso   1.000  Al
  Al56     1.0000 0.00001  0.74714  0.76230  Biso   1.000  Al
  Al57     1.0000 0.49999  0.96302  0.82526  Biso   1.000  Al
  Al58     1.0000 1.00000  0.87941  0.79676  Biso   1.000  Al
  Al59     1.0000 1.00000  0.00766  0.75309  Biso   1.000  Al
  Al60     1.0000 0.50000  0.01839  0.72096  Biso   1.000  Al
  Al61     1.0000 0.49997  0.00368  0.59653  Biso   1.000  Al
  Al62     1.0000 0.50000  0.92629  0.65686  Biso   1.000  Al
  Al63     1.0000 0.50000  0.77610  0.78191  Biso   1.000  Al
  Al64     1.0000 0.25105  0.67847  0.81112  Biso   1.000  Al
  Al65     1.0000 0.74897  0.67847  0.81112  Biso   1.000  Al
  Al66     1.0000 0.99998  0.84956  0.65641  Biso   1.000  Al
  Al67     1.0000 0.50000  0.50773  0.50482  Biso   1.000  Al
  Al68     1.0000 0.25080  0.35269  0.66238  Biso   1.000  Al
  Al69     1.0000 0.75283  0.03330  0.50633  Biso   1.000  Al
  Al70     1.0000 0.74920  0.35269  0.66238  Biso   1.000  Al
  Al71     1.0000 0.22226  0.63044  0.73785  Biso   1.000  Al
  Al72     1.0000 0.26979  0.46036  0.56143  Biso   1.000  Al
  Al73     1.0000 0.76702  0.78791  0.70482  Biso   1.000  Al
  Al74     1.0000 0.73022  0.46037  0.56143  Biso   1.000  Al
  Al75     1.0000 0.23298  0.78791  0.70482  Biso   1.000  Al
  Al76     1.0000 0.99999  0.96526  0.55604  Biso   1.000  Al
  Al77     1.0000 0.49999  0.42593  0.61586  Biso   1.000  Al
  Al78     1.0000 0.00000  0.66158  0.67212  Biso   1.000  Al
  Al79     1.0000 0.50009  0.32851  0.52634  Biso   1.000  Al
  Al80     1.0000 0.50001  0.79279  0.29677  Biso   1.000  Al
  Al81     1.0000 0.50001  0.56758  0.64557  Biso   1.000  Al
  Al82     1.0000 0.50000  0.53922  0.72487  Biso   1.000  Al
  Al83     1.0000 0.00000  0.69210  0.56407  Biso   1.000  Al
  Al84     1.0000 0.49998  0.69272  0.58227  Biso   1.000  Al
  Al85     1.0000 0.00000  0.37530  0.56336  Biso   1.000  Al
  Al86     1.0000 0.50000  0.70164  0.71902  Biso   1.000  Al
  Al87     1.0000 0.50001  0.77123  0.65581  Biso   1.000  Al
  Al88     1.0000 0.00001  0.45418  0.62591  Biso   1.000  Al
  Al89     1.0000 0.50000  0.93088  0.53206  Biso   1.000  Al
  Al90     1.0000 0.24715  0.03330  0.50633  Biso   1.000  Al
  Al91     1.0000 0.00000  0.20903  0.58164  Biso   1.000  Al
  Al92     1.0000 0.75021  0.84908  0.17313  Biso   1.000  Al
  Al93     1.0000 0.77804  0.19583  0.64062  Biso   1.000  Al
  Al94     1.0000 0.50002  0.87820  0.22922  Biso   1.000  Al
  Al95     1.0000 0.25024  0.46280  0.16452  Biso   1.000  Al
  Al96     1.0000 0.99996  0.49818  0.21585  Biso   1.000  Al
  Al97     1.0000 0.00001  0.64529  0.25451  Biso   1.000  Al
  Al98     1.0000 0.24967  0.53061  0.26970  Biso   1.000  Al
  Al99     1.0000 0.25070  0.61389  0.19771  Biso   1.000  Al
  Al100    1.0000 1.00000  0.56007  0.32467  Biso   1.000  Al
  Al101    1.0000 0.00001  0.70210  0.36586  Biso   1.000  Al
  Al102    1.0000 0.25203  0.58744  0.38169  Biso   1.000  Al
  Al103    1.0000 0.25000  0.67617  0.31060  Biso   1.000  Al
  Al104    1.0000 0.00002  0.61838  0.43591  Biso   1.000  Al
  Al105    1.0000 0.25015  0.50034  0.45077  Biso   1.000  Al
  Al106    1.0000 0.99998  0.84035  0.51176  Biso   1.000  Al
  Al107    1.0000 0.25655  0.73451  0.41855  Biso   1.000  Al
  Al108    1.0000 0.00003  0.73115  0.18623  Biso   1.000  Al
  Al109    1.0000 0.00004  0.87772  0.22919  Biso   1.000  Al
  Al110    1.0000 0.25028  0.76104  0.24170  Biso   1.000  Al
  Al111    1.0000 0.24984  0.84909  0.17312  Biso   1.000  Al
  Al112    1.0000 0.00000  0.79260  0.29704  Biso   1.000  Al
  Al113    1.0000 0.74975  0.76104  0.24170  Biso   1.000  Al
  Al114    1.0000 0.25089  0.82140  0.35178  Biso   1.000  Al
  Al115    1.0000 0.25014  0.91068  0.28250  Biso   1.000  Al
  Al116    1.0000 1.00000  0.84447  0.40805  Biso   1.000  Al
  Al117    1.0000 0.16958  0.71281  0.48832  Biso   1.000  Al
  Al118    1.0000 0.27990  0.87881  0.47207  Biso   1.000  Al
  Al119    1.0000 0.00002  0.38302  0.45978  Biso   1.000  Al
  Al120    1.0000 0.24670  0.35445  0.40468  Biso   1.000  Al
  Al121    1.0000 0.24561  0.96284  0.39290  Biso   1.000  Al
  Al122    1.0000 0.00006  0.96257  0.16290  Biso   1.000  Al
  Al123    1.0000 0.00001  0.11340  0.19659  Biso   1.000  Al
  Al124    1.0000 0.25075  0.99685  0.21409  Biso   1.000  Al
  Al125    1.0000 0.00002  0.02766  0.26773  Biso   1.000  Al
  Al126    1.0000 0.00002  0.17411  0.30867  Biso   1.000  Al
  Al127    1.0000 0.24868  0.05568  0.32252  Biso   1.000  Al
  Al128    1.0000 0.25052  0.14371  0.25348  Biso   1.000  Al
  Al129    1.0000 0.00000  0.08166  0.37780  Biso   1.000  Al
  Al130    1.0000 0.00001  0.23305  0.41640  Biso   1.000  Al
  Al131    1.0000 0.25007  0.44270  0.33786  Biso   1.000  Al
  Al132    1.0000 0.25641  0.10892  0.42790  Biso   1.000  Al
  Al133    1.0000 0.00001  0.12799  0.47291  Biso   1.000  Al
  Al134    1.0000 0.26521  0.26573  0.46714  Biso   1.000  Al
  Al135    1.0000 0.99992  0.34926  0.17411  Biso   1.000  Al
  Al136    1.0000 0.25019  0.23169  0.18617  Biso   1.000  Al
  Al137    1.0000 0.00000  0.26076  0.24146  Biso   1.000  Al
  Al138    1.0000 0.99996  0.41192  0.28334  Biso   1.000  Al
  Al139    1.0000 0.25034  0.29323  0.29641  Biso   1.000  Al
  Al140    1.0000 0.25040  0.37867  0.23036  Biso   1.000  Al
  Al141    1.0000 0.00002  0.32339  0.34988  Biso   1.000  Al
  Al142    1.0000 1.00000  0.47213  0.39245  Biso   1.000  Al
  Al143    1.0000 0.24754  0.20215  0.36268  Biso   1.000  Al
  Al144    1.0000 0.49999  0.99603  0.44558  Biso   1.000  Al
  Al145    1.0000 0.00001  0.93765  0.33725  Biso   1.000  Al
  Al146    1.0000 0.50005  0.96183  0.16281  Biso   1.000  Al
  Al147    1.0000 0.75438  0.96284  0.39289  Biso   1.000  Al
  Al148    1.0000 0.50000  0.32351  0.35060  Biso   1.000  Al
  Al149    1.0000 0.50001  0.47093  0.39213  Biso   1.000  Al
  Al150    1.0000 0.75332  0.35444  0.40467  Biso   1.000  Al
  Al151    1.0000 0.74992  0.44269  0.33786  Biso   1.000  Al
  Al152    1.0000 0.50002  0.38310  0.45671  Biso   1.000  Al
  Al153    1.0000 0.74986  0.50034  0.45077  Biso   1.000  Al
  Al154    1.0000 0.74967  0.46281  0.16451  Biso   1.000  Al
  Al155    1.0000 0.49997  0.49793  0.21606  Biso   1.000  Al
  Al156    1.0000 0.49999  0.64475  0.25455  Biso   1.000  Al
  Al157    1.0000 0.75031  0.53060  0.26971  Biso   1.000  Al
  Al158    1.0000 0.74928  0.61389  0.19773  Biso   1.000  Al
  Al159    1.0000 0.50000  0.56010  0.32467  Biso   1.000  Al
  Al160    1.0000 0.50002  0.70320  0.36573  Biso   1.000  Al
  Al161    1.0000 0.74801  0.58743  0.38169  Biso   1.000  Al
  Al162    1.0000 0.75000  0.67617  0.31060  Biso   1.000  Al
  Al163    1.0000 0.50000  0.61412  0.43801  Biso   1.000  Al
  Al164    1.0000 0.50003  0.75234  0.47849  Biso   1.000  Al
  Al165    1.0000 0.83047  0.71280  0.48831  Biso   1.000  Al
  Al166    1.0000 0.74346  0.73450  0.41855  Biso   1.000  Al
  Al167    1.0000 0.50001  0.73152  0.18636  Biso   1.000  Al
  Al168    1.0000 0.74966  0.29322  0.29641  Biso   1.000  Al
  Al169    1.0000 0.50000  0.41279  0.28351  Biso   1.000  Al
  Al170    1.0000 0.74953  0.37867  0.23035  Biso   1.000  Al
  Al171    1.0000 0.74976  0.23169  0.18617  Biso   1.000  Al
  Al172    1.0000 0.50001  0.11343  0.19649  Biso   1.000  Al
  Al173    1.0000 0.74932  0.99683  0.21409  Biso   1.000  Al
  Al174    1.0000 0.50000  0.02803  0.26818  Biso   1.000  Al
  Al175    1.0000 0.50001  0.17523  0.30866  Biso   1.000  Al
  Al176    1.0000 0.75135  0.05568  0.32252  Biso   1.000  Al
  Al177    1.0000 0.74951  0.14370  0.25348  Biso   1.000  Al
  Al178    1.0000 0.50000  0.08188  0.37486  Biso   1.000  Al
  Al179    1.0000 0.50001  0.23088  0.41391  Biso   1.000  Al
  Al180    1.0000 0.74359  0.10892  0.42790  Biso   1.000  Al
  Al181    1.0000 0.75250  0.20215  0.36268  Biso   1.000  Al
  Al182    1.0000 0.49999  0.26101  0.24144  Biso   1.000  Al
  Al183    1.0000 0.50000  0.14169  0.47954  Biso   1.000  Al
  Al184    1.0000 0.00002  0.26408  0.51218  Biso   1.000  Al
  Al185    1.0000 0.49997  0.34936  0.17397  Biso   1.000  Al
  Al186    1.0000 0.73483  0.26573  0.46714  Biso   1.000  Al
  Fe1      1.0000 1.00000  0.29996  0.63048  Biso   1.000  Fe
  Fe2      1.0000 0.50000  0.62639  0.77739  Biso   1.000  Fe
  Fe3      1.0000 0.70989  0.65908  0.67045  Biso   1.000  Fe
  Fe4      1.0000 0.50000  0.86490  0.71858  Biso   1.000  Fe
  Fe5      1.0000 0.29011  0.65907  0.67045  Biso   1.000  Fe
  Fe6      1.0000 0.49999  0.15989  0.74617  Biso   1.000  Fe
  Fe7      1.0000 0.50000  0.28361  0.63740  Biso   1.000  Fe
  Fe8      1.0000 0.00000  0.60956  0.78569  Biso   1.000  Fe
  Fe9      1.0000 0.99999  0.15672  0.75169  Biso   1.000  Fe
  Fe10     1.0000 1.00000  0.87029  0.72464  Biso   1.000  Fe
  Fe11     1.0000 0.99999  0.83338  0.58588  Biso   1.000  Fe
  Fe12     1.0000 0.00000  0.53659  0.56764  Biso   1.000  Fe
  Fe13     1.0000 0.49998  0.83954  0.59350  Biso   1.000  Fe
  Fe14     1.0000 0.99999  0.41033  0.69025  Biso   1.000  Fe
  Fe15     1.0000 0.79811  0.97404  0.81760  Biso   1.000  Fe
  Fe16     1.0000 0.20188  0.97403  0.81760  Biso   1.000  Fe
  Fe17     1.0000 0.50000  0.08299  0.54058  Biso   1.000  Fe
  Fe18     1.0000 0.22366  0.36744  0.79764  Biso   1.000  Fe
  Fe19     1.0000 0.70362  0.04926  0.64706  Biso   1.000  Fe
  Fe20     1.0000 0.77631  0.36744  0.79764  Biso   1.000  Fe
  Fe21     1.0000 0.29637  0.04926  0.64706  Biso   1.000  Fe
  Fe22     1.0000 0.99999  0.10668  0.53710  Biso   1.000  Fe
  Fe23     1.0000 0.50000  0.42275  0.68541  Biso   1.000  Fe
  Fe24     1.0000 0.50000  0.55021  0.57167  Biso   1.000  Fe
  Fe25     1.0000 0.00001  0.75448  0.82909  Biso   1.000  Fe
